.MODEL BFW11 njf(VTO=-2.0850 BETA=1.24635m BETATCE=-0.5 LAMBDA 2.46045E-2 RD=1.68159E1 RS=1.68159E1 CGS=2.25000p CGD=2.25000p PB=9.32203E-1 IS=2.16894E-16 XTI=3 AF=1 FC=0.5 N=1 NR=2 MFG=PHILIPS)
